psse_raw/case11_network_reductions.raw
 0,    100.00, 33, 0, 0, 60.00 
tests an angle shifting transformer

    1,'1           ', 230.0000,2,   1,   1,   1,1.00000000,   2.803770, 1.10000, 0.90000, 1.10000, 0.90000
    2,'2           ', 230.0000,1,   1,   1,   1,1.08406997,  -0.734650, 1.10000, 0.90000, 1.10000, 0.90000
    3,'3           ', 230.0000,2,   1,   1,   1,1.00000000,  -0.559720, 1.10000, 0.90000, 1.10000, 0.90000
    4,'4           ', 230.0000,3,   1,   1,   1,1.06413996,   0.000000, 1.10000, 0.90000, 1.10000, 0.90000
    5,'5          ', 230.0000,2,   1,   1,   1,1.00000000,   3.590330, 1.10000, 0.90000, 1.10000, 0.90000
    6,'6          ', 230.0000,1,   1,   1,   1,1.00000000,   3.590330, 1.10000, 0.90000, 1.10000, 0.90000
    7,'7          ', 230.0000,1,   1,   1,   1,1.00000000,   3.590330, 1.10000, 0.90000, 1.10000, 0.90000
    8,'8          ', 230.0000,1,   1,   1,   1,1.00000000,   3.590330, 1.10000, 0.90000, 1.10000, 0.90000
    9,'9          ', 230.0000,1,   1,   1,   1,1.00000000,   3.590330, 1.10000, 0.90000, 1.10000, 0.90000
    10,'10          ', 230.0000,1,   1,   1,   1,1.00000000,   3.590330, 1.10000, 0.90000, 1.10000, 0.90000
    11,'11          ', 230.0000,1,   1,   1,   1,1.00000000,   3.590330, 1.10000, 0.90000, 1.10000, 0.90000
0 / END OF BUS DATA, BEGIN LOAD DATA
    2,'1 ',1,   1,   1,   300.000,    98.610,     0.000,     0.000,     0.000,     0.000,   1,1
    3,'1 ',1,   1,   1,   300.000,    98.610,     0.000,     0.000,     0.000,     0.000,   1,1
    4,'1 ',1,   1,   1,   400.000,   131.470,     0.000,     0.000,     0.000,     0.000,   1,1
0 / END OF LOAD DATA, BEGIN FIXED SHUNT DATA
0 / END OF FIXED SHUNT DATA, BEGIN GENERATOR DATA
    1,'1 ',    40.000,    30.000,    30.000,   -30.000,1.07762,    0,   100.000,   0.00000,   1.00000,   0.00000,   0.00000,1.00000,1,  100.0,    40.000,     0.000,   1,1.0000,   0,1.0000,   0,1.0000,   0,1.0000,0, 1.0000
    1,'2 ',   170.000,   127.500,   127.500,  -127.500,1.07762,    0,   100.000,   0.00000,   1.00000,   0.00000,   0.00000,1.00000,1,  100.0,   170.000,     0.000,   1,1.0000,   0,1.0000,   0,1.0000,   0,1.0000,0, 1.0000
    3,'1 ',   324.498,   390.000,   390.000,  -390.000,1.10000,    0,   100.000,   0.00000,   1.00000,   0.00000,   0.00000,1.00000,1,  100.0,   520.000,     0.000,   1,1.0000,   0,1.0000,   0,1.0000,   0,1.0000,0, 1.0000
    4,'1 ',     0.000,   -10.802,   150.000,  -150.000,1.06414,    0,   100.000,   0.00000,   1.00000,   0.00000,   0.00000,1.00000,1,  100.0,   200.000,     0.000,   1,1.0000,   0,1.0000,   0,1.0000,   0,1.0000,0, 1.0000
    5,'1 ',   470.694,  -165.039,   450.000,  -450.000,1.06907,    0,   100.000,   0.00000,   1.00000,   0.00000,   0.00000,1.00000,1,  100.0,   600.000,     0.000,   1,1.0000,   0,1.0000,   0,1.0000,   0,1.0000,0, 1.0000
0 / END OF GENERATOR DATA, BEGIN BRANCH DATA
     1,     6,'1 ',2.81000E-3,2.81000E-2,7.12000E-3, 400.00, 400.00, 400.00,  0.00000,  0.00000,  0.00000,  0.00000,1,1,   0.0,   1,1.0000,   0,1.0000,   0,1.0000,   0,1.0000
     6,     7,'1 ',2.81000E-3,2.81000E-2,7.12000E-3, 400.00, 400.00, 400.00,  0.00000,  0.00000,  0.00000,  0.00000,1,1,   0.0,   1,1.0000,   0,1.0000,   0,1.0000,   0,1.0000
     7,     2,'1 ',2.81000E-3,2.81000E-2,7.12000E-3, 400.00, 400.00, 400.00,  0.00000,  0.00000,  0.00000,  0.00000,1,1,   0.0,   1,1.0000,   0,1.0000,   0,1.0000,   0,1.0000
     1,     4,'1 ',3.04000E-3,3.04000E-2,6.58000E-3, 426.00, 426.00, 426.00,  0.00000,  0.00000,  0.00000,  0.00000,1,1,   0.0,   1,1.0000,   0,1.0000,   0,1.0000,   0,1.0000
     1,     4,'2 ',3.04000E-3,3.04000E-2,6.58000E-3, 426.00, 426.00, 426.00,  0.00000,  0.00000,  0.00000,  0.00000,1,1,   0.0,   1,1.0000,   0,1.0000,   0,1.0000,   0,1.0000
     1,     8,'1 ',3.04000E-3,3.04000E-2,6.58000E-3, 426.00, 426.00, 426.00,  0.00000,  0.00000,  0.00000,  0.00000,1,1,   0.0,   1,1.0000,   0,1.0000,   0,1.0000,   0,1.0000
     1,     9,'1 ',6.40000E-4,6.40000E-3,3.12600E-2, 426.00, 426.00, 426.00,  0.00000,  0.00000,  0.00000,  0.00000,1,1,   0.0,   1,1.0000,   0,1.0000,   0,1.0000,   0,1.0000
     2,     10,'1 ',1.08000E-3,1.08000E-2,1.85200E-2, 426.00, 426.00, 426.00,  0.00000,  0.00000,  0.00000,  0.00000,1,1,   0.0,   1,1.0000,   0,1.0000,   0,1.0000,   0,1.0000
     2,     10,'2 ',1.08000E-3,1.08000E-2,1.85200E-2, 426.00, 426.00, 426.00,  0.00000,  0.00000,  0.00000,  0.00000,1,1,   0.0,   1,1.0000,   0,1.0000,   0,1.0000,   0,1.0000
     10,     3,'1 ',1.08000E-3,1.08000E-2,1.85200E-2, 426.00, 426.00, 426.00,  0.00000,  0.00000,  0.00000,  0.00000,1,1,   0.0,   1,1.0000,   0,1.0000,   0,1.0000,   0,1.0000
     3,     11,'1 ',1.08000E-3,1.08000E-2,1.85200E-2, 426.00, 426.00, 426.00,  0.00000,  0.00000,  0.00000,  0.00000,1,1,   0.0,   1,1.0000,   0,1.0000,   0,1.0000,   0,1.0000
     4,     5,'1 ',2.97000E-3,2.97000E-2,6.74000E-3, 240.00, 240.00, 240.00,  0.00000,  0.00000,  0.00000,  0.00000,1,1,   0.0,   1,1.0000,   0,1.0000,   0,1.0000,   0,1.0000
0 / END OF BRANCH DATA, BEGIN TRANSFORMER DATA
   9,   5,     0,'1 ',1,1,1, 5.00000E-1,-5.00000E-1,2,'TRAFO 2W 3  ',1,   1,1.0000,   0,1.0000,   0,1.0000,   0,1.0000,'            '
 1.00000E-3, 1.00000E-2,   100.00
1.00000,   0.000,   0.000,     0.00,     0.00,     0.00, 0,      0, 1.10000, 0.90000, 1.10000, 0.90000,  33, 0, 0.00000, 0.00000,   0.000
1.00000,   0.000
   11,   4,     0,'1 ',1,1,1, 5.00000E-1,-5.00000E-1,2,'TRAFO 2W 3  ',1,   1,1.0000,   0,1.0000,   0,1.0000,   0,1.0000,'            '
 1.00000E-3, 1.00000E-2,   100.00
1.00000,   0.000,   0.000,     0.00,     0.00,     0.00, 0,      0, 1.10000, 0.90000, 1.10000, 0.90000,  33, 0, 0.00000, 0.00000,   0.000
1.00000,   0.000
   11,   4,     0,'2 ',1,1,1, 5.00000E-1,-5.00000E-1,2,'TRAFO 2W 3  ',1,   1,1.0000,   0,1.0000,   0,1.0000,   0,1.0000,'            '
 1.00000E-3, 1.00000E-2,   100.00
1.00000,   0.000,   0.000,     0.00,     0.00,     0.00, 0,      0, 1.10000, 0.90000, 1.10000, 0.90000,  33, 0, 0.00000, 0.00000,   0.000
1.00000,   0.000
0 / END OF TRANSFORMER DATA, BEGIN AREA DATA
   1,    0,     0.000,     1.000,'1           '
0 / END OF AREA DATA, BEGIN TWO-TERMINAL DC DATA
0 / END OF TWO-TERMINAL DC DATA, BEGIN VOLTAGE SOURCE CONVERTER DATA
0 / END OF VOLTAGE SOURCE CONVERTER DATA, BEGIN IMPEDANCE CORRECTION DATA
0 / END OF IMPEDANCE CORRECTION DATA, BEGIN MULTI-TERMINAL DC DATA
0 / END OF MULTI-TERMINAL DC DATA, BEGIN MULTI-SECTION LINE DATA
0 / END OF MULTI-SECTION LINE DATA, BEGIN ZONE DATA
   1,'1       '
0 / END OF ZONE DATA, BEGIN INTER-AREA TRANSFER DATA
0 / END OF INTER-AREA TRANSFER DATA, BEGIN OWNER DATA
    1,'1'
0 / END OF OWNER DATA, BEGIN FACTS CONTROL DEVICE DATA
0 / END OF FACTS CONTROL DEVICE DATA, BEGIN SWITCHED SHUNT DATA
0 /END OF SWITCHED SHUNT DATA, BEGIN GNE DEVICE DATA
0 /END OF GNE DEVICE DATA
Q
